9
0 1
H         11.34600        4.55500        6.24500
C         11.14500        4.76800        7.75700
H         12.11400        4.94900        8.22300
C         10.21900        5.93200        8.11200
H         10.19200        6.05300        9.19500
H         10.59700        6.85300        7.66700
H          9.20700        5.74400        7.75300
O         10.60500        3.59800        8.32600
H         11.34500        3.06800        8.63700