33
0 1
H         16.03400        9.04100        8.64700
C         16.36800        8.42400        7.81300
H         16.85400        7.52800        8.19500
H         17.06000        8.99100        7.19400
C         15.16600        8.02700        6.98900
O         14.04500        8.39700        7.31300
N         15.39900        7.27300        5.91700
H         16.34100        6.97100        5.73500
C         14.32200        6.71800        5.09200
H         13.61400        7.51800        4.87100
C         14.89400        6.21000        3.76100
H         15.33000        7.05000        3.21800
H         15.69400        5.49700        3.96700
H         13.85700        5.54100        2.87800
C         13.55400        5.60700        5.82900
O         14.15400        4.74600        6.47300
N         12.22700        5.59300        5.69400
H         11.78500        6.29300        5.11300
C         11.34600        4.55500        6.24500
H         11.83400        3.59000        6.10900
C         11.14500        4.76800        7.75700
H         12.11400        4.94900        8.22300
C         10.21900        5.93200        8.11200
H         10.19200        6.05300        9.19500
H         10.59700        6.85300        7.66700
H          9.20700        5.74400        7.75300
O         10.60500        3.59800        8.32600
H         11.34500        3.06800        8.63700
C         10.01600        4.50500        5.48000
O          9.71600        5.38100        4.67500
N          9.19700        3.48500        5.69800
H          8.32300        3.45800        5.20000
H          9.41700        2.82200        6.42500
