27
0 1
H         16.03400        9.04100        8.64700
C         16.36800        8.42400        7.81300
H         16.85400        7.52800        8.19500
H         17.06000        8.99100        7.19400
C         15.16600        8.02700        6.98900
O         14.04500        8.39700        7.31300
N         15.39900        7.27300        5.91700
H         16.34100        6.97100        5.73500
C         14.32200        6.71800        5.09200
H         13.61400        7.51800        4.87100
C         14.89400        6.21000        3.76100
H         15.33000        7.05000        3.21800
H         15.69400        5.49700        3.96700
C         13.85700        5.54100        2.87800
C         12.96600        6.32400        2.12100
H         13.04000        7.40200        2.13700
C         11.96400        5.70600        1.35200
H         11.27300        6.30800        0.77800
C         11.85000        4.30500        1.33700
H         11.07500        3.83200        0.75100
C         12.74000        3.52000        2.09100
H         12.65000        2.44300        2.08400
C         13.74100        4.13800        2.86200
H         14.41200        3.53200        3.45600
C         13.55400        5.60700        5.82900
O         14.15400        4.74600        6.47300
H         12.22700        5.59300        5.69400
