41
Fragment 2
H 60.863 -26.862 41.382
C 60.844 -25.785 41.547
H 60.144 -25.321 40.856
H 61.838 -25.372 41.390
C 60.404 -25.510 42.964
O 60.003 -26.424 43.673
N 60.455 -24.248 43.387
H 60.722 -23.543 42.707
C 60.132 -23.811 44.755
H 60.541 -24.561 45.435
C 60.869 -22.485 45.053
H 60.667 -22.186 46.081
H 61.941 -22.655 44.966
C 60.507 -21.321 44.141
O 61.318 -20.853 43.361
N 59.298 -20.818 44.202
H 58.599 -21.262 44.792
H 59.051 -20.034 43.615
C 58.614 -23.772 45.069
O 58.161 -22.875 45.778
N 57.834 -24.698 44.500
H 58.310 -25.463 44.036
C 56.378 -24.629 44.334
H 56.070 -25.472 43.893
H 56.146 -23.835 43.635
C 55.600 -24.328 45.631
O 55.325 -25.220 46.431
N 55.226 -23.058 45.815
H 55.551 -22.375 45.137
C 54.566 -22.530 47.012
H 53.852 -23.269 47.376
C 55.624 -22.315 48.101
H 56.156 -23.252 48.271
H 56.340 -21.561 47.768
O 55.025 -21.899 49.314
H 55.694 -21.936 50.004
C 53.802 -21.227 46.718
O 54.058 -20.526 45.740
N 52.839 -20.870 47.557
H 52.694 -21.410 48.395
H 52.335 -20.018 47.380
