42
Fragment 1
C 55.906 -25.919 43.659
H 56.214 -25.076 44.100
H 56.168 -26.760 44.302
H 54.819 -25.894 43.576
S 56.596 -26.219 42.003
H 56.406 -16.655 44.864
C 57.054 -17.528 44.901
H 56.865 -18.092 45.813
H 58.096 -17.213 44.873
C 56.773 -18.409 43.708
O 57.669 -18.668 42.906
N 55.538 -18.903 43.605
H 54.901 -18.763 44.376
C 55.155 -19.880 42.583
H 54.128 -20.203 42.750
H 55.227 -19.416 41.599
C 56.069 -21.105 42.640
O 56.472 -21.520 43.721
N 56.446 -21.658 41.486
H 56.049 -21.306 40.630
C 57.558 -22.614 41.385
H 57.701 -23.110 42.342
C 57.198 -23.696 40.360
H 56.978 -23.212 39.408
H 58.069 -24.334 40.200
S 55.800 -24.774 40.793
C 58.916 -21.956 41.057
O 59.922 -22.664 41.000
N 58.961 -20.637 40.826
H 58.136 -20.084 41.003
C 60.147 -19.920 40.343
H 61.044 -20.450 40.668
C 60.140 -19.869 38.799
H 59.320 -19.230 38.466
H 61.073 -19.417 38.458
S 59.951 -21.504 38.021
H 60.903 -22.127 38.729
C 60.213 -18.497 40.933
O 59.705 -17.543 40.355
N 60.842 -18.329 42.086
H 61.226 -19.131 42.572
H 60.871 -17.407 42.486
