50
Fragment 1
H 16.701 49.911 20.570
C 15.818 49.982 19.938
H 15.410 48.983 19.784
H 16.079 50.413 18.974
C 14.760 50.843 20.598
O 13.659 50.376 20.829
N 15.040 52.100 20.939
H 14.278 52.622 21.348
C 16.334 52.801 20.847
H 16.861 52.443 19.965
C 16.084 54.296 20.641
H 17.037 54.809 20.509
H 15.484 54.444 19.742
O 15.403 54.835 21.752
H 15.470 55.806 21.681
C 17.266 52.549 22.047
O 18.261 53.256 22.232
N 16.962 51.539 22.869
H 16.098 51.045 22.705
C 17.894 50.955 23.833
H 18.337 51.730 24.438
C 17.133 50.031 24.787
H 16.426 50.475 25.338
H 16.664 49.240 24.198
H 17.845 49.556 25.463
C 19.049 50.251 23.110
O 18.875 49.179 22.537
N 20.225 50.881 23.147
H 20.248 51.778 23.620
C 21.462 50.426 22.498
H 21.313 49.422 22.100
C 21.799 51.368 21.327
H 22.068 52.340 21.743
H 22.684 50.980 20.820
C 20.722 51.573 20.269
C 20.003 50.479 19.748
H 20.185 49.480 20.118
C 19.055 50.673 18.728
H 18.521 49.824 18.323
C 18.818 51.962 18.220
H 18.101 52.107 17.424
C 19.528 53.059 18.738
H 19.361 54.049 18.338
C 20.482 52.863 19.754
H 21.049 53.706 20.120
C 22.651 50.328 23.474
O 23.719 49.856 23.112
N 22.508 50.768 24.719
H 21.636 51.176 25.015
H 23.291 50.676 25.345
