59
Fragment 1
H 21.821 22.262 18.448
C 21.449 21.239 18.452
H 20.488 21.200 18.959
H 22.161 20.589 18.958
C 21.280 20.770 17.026
O 21.958 19.842 16.601
N 20.379 21.410 16.284
H 19.893 22.200 16.699
C 20.108 21.101 14.875
H 21.047 20.812 14.401
C 19.146 19.908 14.775
H 19.568 19.067 15.328
H 18.203 20.175 15.255
C 18.851 19.449 13.378
C 19.570 18.531 12.695
H 20.430 18.002 13.092
N 19.044 18.378 11.427
H 19.415 17.732 10.745
C 17.954 19.196 11.227
C 17.099 19.399 10.135
H 17.240 18.850 9.216
C 16.052 20.329 10.249
H 15.386 20.496 9.413
C 15.877 21.039 11.450
H 15.066 21.747 11.539
C 16.747 20.833 12.539
H 16.601 21.389 13.454
C 17.805 19.900 12.459
C 19.562 22.319 14.119
O 18.887 23.171 14.701
N 19.844 22.411 12.817
H 20.358 21.664 12.373
C 19.379 23.504 11.965
H 19.984 24.287 12.110
H 18.377 23.778 12.279
C 19.294 23.089 10.491
O 20.263 22.559 9.952
N 18.131 23.359 9.882
H 17.418 23.737 10.498
C 17.701 23.225 8.473
H 16.619 23.336 8.527
C 18.183 24.428 7.621
H 17.934 25.334 8.176
C 19.701 24.441 7.362
H 19.980 25.317 6.779
H 20.243 24.498 8.303
H 20.007 23.545 6.822
C 17.408 24.476 6.283
H 17.775 23.697 5.613
H 16.353 24.279 6.480
C 17.487 25.829 5.565
H 16.836 25.810 4.691
H 17.158 26.626 6.233
H 18.505 26.029 5.232
C 17.878 21.856 7.781
O 16.981 21.417 7.072
N 18.972 21.135 7.969
H 19.699 21.491 8.575
H 19.049 20.246 7.508
