48
Fragment 2
H -16.406 -36.496 48.247
C -17.457 -36.756 48.134
H -18.000 -35.926 47.688
H -17.880 -36.994 49.109
C -17.569 -37.968 47.241
O -17.991 -39.028 47.686
N -17.174 -37.834 45.977
H -16.776 -36.947 45.688
C -17.161 -38.934 44.993
H -18.035 -39.561 45.167
C -17.265 -38.401 43.551
H -17.263 -39.248 42.864
C -18.543 -37.598 43.314
H -19.413 -38.204 43.564
H -18.542 -36.694 43.923
H -18.598 -37.314 42.263
O -16.175 -37.567 43.245
H -15.395 -38.135 43.231
C -15.928 -39.828 45.193
O -15.086 -39.965 44.303
N -15.776 -40.376 46.401
H -16.504 -40.188 47.083
C -14.544 -40.991 46.899
H -13.718 -40.371 46.554
C -14.538 -40.940 48.434
H -15.350 -41.564 48.810
H -13.601 -41.378 48.781
S -14.691 -39.285 49.167
C -14.265 -42.406 46.350
O -14.225 -43.386 47.093
N -14.066 -42.518 45.034
H -14.171 -41.677 44.480
C -13.614 -43.732 44.353
H -14.176 -44.579 44.750
C -13.957 -43.601 42.861
H -13.427 -42.755 42.424
H -13.662 -44.512 42.337
H -15.031 -43.456 42.739
C -12.115 -44.018 44.620
O -11.264 -43.925 43.738
N -11.754 -44.312 45.861
H -12.454 -44.303 46.593
H -10.782 -44.474 46.064
C -11.692 -38.746 49.039
H -10.916 -38.838 48.415
H -11.871 -39.718 49.502
H -11.437 -38.046 49.835
S -13.231 -38.197 48.253
