28
Fragment 2
C 8.286 11.705 4.858
H 8.282 12.673 5.109
O 7.658 10.886 5.518
N 8.986 11.332 3.779
H 9.441 12.071 3.252
C 9.116 9.936 3.300
H 8.128 9.478 3.343
C 9.585 9.970 1.830
H 8.879 10.572 1.255
H 10.546 10.487 1.797
C 9.768 8.623 1.095
H 10.217 8.864 0.130
H 10.495 8.002 1.616
C 8.494 7.806 0.790
H 7.725 8.488 0.423
H 8.727 7.128 -0.034
C 7.895 6.961 1.930
H 7.572 7.622 2.739
H 7.004 6.458 1.541
N 8.843 5.948 2.461
H 9.273 5.412 1.719
H 9.567 6.421 3.002
H 8.375 5.315 3.097
C 10.034 9.064 4.179
O 9.939 7.843 4.122
N 10.913 9.642 4.983
H 11.501 9.053 5.551
H 11.000 10.642 5.003
