16
Fragment 3
C 5.567 5.186 6.532
H 6.316 5.838 6.649
O 5.814 3.995 6.343
N 4.315 5.653 6.592
H 4.200 6.627 6.861
C 3.112 4.824 6.505
H 3.246 3.958 7.155
C 1.944 5.659 7.045
H 1.036 5.055 7.055
H 2.167 5.992 8.060
H 1.790 6.532 6.409
C 2.801 4.284 5.092
O 2.129 3.264 4.954
N 3.254 4.940 4.030
H 3.732 5.824 4.151
H 3.045 4.589 3.110
