59
Fragment 3
H 5.877 -2.495 -1.970
H 3.823 0.881 -2.031
H 5.350 0.980 0.491
H 6.369 1.760 -1.589
H 7.321 3.862 -0.782
H 6.066 4.046 0.416
H 4.400 2.803 -2.765
H 4.353 4.077 -1.558
H 5.731 3.919 -2.633
H 8.245 3.156 1.355
H 8.051 1.693 0.407
H 6.900 2.092 1.688
H 2.285 1.875 -0.649
H 1.706 3.172 1.881
H 0.765 4.524 -0.696
H 0.137 4.849 0.898
H 3.056 5.253 0.101
H 2.500 7.680 -0.049
H 0.809 7.333 0.272
H 1.558 6.760 -1.213
H 3.169 6.674 2.170
H 1.538 6.182 2.598
H 2.848 4.998 2.553
C 2.908 -3.241 0.958
H 2.121 -2.624 0.963
O 2.795 -4.410 1.324
N 4.116 -2.807 0.490
C 4.662 -1.487 0.207
C 6.213 -1.606 -0.012
C 8.011 -2.362 -1.705
C 6.929 -1.922 1.318
C 6.592 -2.588 -1.154
C 4.014 -0.823 -1.035
O 3.475 -1.467 -1.923
N 4.118 0.551 -1.127
C 4.754 1.524 -0.228
C 5.731 2.453 -1.028
C 6.656 3.301 -0.120
C 5.006 3.356 -2.047
C 7.506 2.508 0.886
C 3.756 2.336 0.642
O 4.125 2.835 1.701
N 2.508 2.482 0.116
C 1.395 3.112 0.844
H 0.608 2.495 0.869
C 1.040 4.541 0.359
C 2.136 5.615 0.571
C 1.728 6.918 -0.147
C 2.437 5.874 2.059
H 4.768 -3.570 0.468
H 4.509 -0.846 1.073
H 6.548 -0.617 -0.329
H 8.127 -1.353 -2.102
H 8.225 -3.056 -2.517
H 8.782 -2.506 -0.949
H 8.010 -1.935 1.189
H 6.641 -2.892 1.723
H 6.705 -1.174 2.078
H 6.513 -3.622 -0.807
