38
Fragment 2
O -1.015 3.739 2.566
N 0.171 3.091 0.756
C -0.713 2.850 1.779
C -1.354 1.443 1.924
H -2.275 1.549 1.549
C -0.708 2.592 -1.564
C -1.354 1.029 3.426
C 0.390 2.328 -0.479
H 1.308 2.524 -0.825
C -1.333 3.975 -1.530
C -2.007 -0.315 3.642
C -2.683 4.123 -1.181
C -0.591 5.128 -1.830
C -1.261 -1.498 3.522
C -1.885 -2.742 3.622
C -1.181 6.391 -1.759
C -3.273 5.387 -1.115
C -2.522 6.528 -1.396
C -3.385 -0.410 3.886
C -3.261 -2.826 3.846
C -4.009 -1.655 3.983
H 0.372 4.077 0.683
H -0.826 0.687 1.358
H -0.267 2.396 -2.539
H -1.489 1.851 -1.414
H -0.315 1.009 3.751
H -1.857 1.811 3.991
H 0.359 1.274 -0.232
H -3.288 3.251 -0.972
H 0.442 5.030 -2.128
H -0.202 -1.435 3.318
H -1.296 -3.645 3.522
H -0.591 7.268 -1.993
H -4.317 5.474 -0.842
H -2.976 7.509 -1.339
H -3.972 0.493 3.991
H -3.744 -3.792 3.922
H -5.075 -1.709 4.168
