18
Fragment 2
C 5.344 8.700 -1.406
H 5.048 8.040 -0.715
O 4.523 9.208 -2.166
N 6.640 9.018 -1.458
H 7.262 8.516 -0.835
C 7.211 10.097 -2.273
H 7.123 9.946 -3.258
H 6.668 11.017 -2.053
C 8.690 10.301 -1.889
H 9.248 9.376 -2.049
H 9.103 11.053 -2.564
C 8.913 10.808 -0.449
H 9.896 11.276 -0.405
H 8.176 11.575 -0.213
C 8.878 9.732 0.639
O 8.645 8.542 0.475
O 9.130 10.185 1.882
H 9.041 9.416 2.448
