27
Fragment 2
H 3.865 8.925 -7.091
C 4.398 8.201 -6.478
H 5.469 8.390 -6.533
H 4.188 7.192 -6.829
C 3.949 8.333 -5.041
O 4.761 8.617 -4.170
N 2.654 8.121 -4.800
H 2.076 7.839 -5.580
C 1.989 8.150 -3.484
H 1.277 7.449 -3.453
H 2.717 7.941 -2.698
C 1.328 9.522 -3.234
H 0.549 9.661 -3.986
H 0.829 9.481 -2.268
C 2.222 10.776 -3.266
H 2.713 10.842 -4.237
H 1.569 11.645 -3.183
C 3.294 10.880 -2.166
H 4.061 10.129 -2.343
H 3.773 11.856 -2.243
C 2.780 10.686 -0.735
H 2.433 9.654 -0.626
H 3.612 10.816 -0.038
N 1.677 11.605 -0.372
H 0.837 11.417 -0.917
H 1.376 11.378 0.582
H 1.926 12.576 -0.417
