67
Fragment 1
N 8.039 12.314 1.703
H 7.351 12.213 0.977
H 8.557 11.509 2.031
C 14.351 19.416 2.685
H 14.467 18.912 1.829
H 14.537 18.727 3.509
C 15.438 20.508 2.744
H 15.249 21.181 3.580
H 16.390 20.019 2.952
C 15.592 21.319 1.467
C 16.600 20.985 0.540
H 17.285 20.176 0.750
C 16.720 21.700 -0.665
H 17.494 21.442 -1.374
C 15.836 22.756 -0.945
H 15.929 23.309 -1.869
C 14.835 23.097 -0.019
H 14.158 23.911 -0.233
C 14.710 22.378 1.183
H 13.931 22.638 1.887
C 12.912 19.951 2.914
O 12.725 20.984 3.554
N 11.887 19.259 2.402
H 12.092 18.376 1.953
C 10.468 19.570 2.612
H 10.380 20.474 3.214
C 9.798 19.848 1.250
H 9.798 18.926 0.672
H 8.757 20.123 1.418
C 10.410 20.950 0.398
C 10.509 20.773 -0.995
H 10.184 19.845 -1.446
C 11.026 21.797 -1.808
H 11.103 21.654 -2.876
C 11.440 23.010 -1.231
H 11.836 23.798 -1.855
C 11.336 23.196 0.158
H 11.650 24.129 0.605
C 10.822 22.170 0.971
H 10.748 22.330 2.037
C 9.763 18.459 3.421
O 10.409 17.588 4.004
N 8.430 18.514 3.508
H 7.956 19.245 3.005
C 7.598 17.591 4.288
H 8.157 17.298 5.179
C 6.358 18.368 4.753
H 6.659 19.265 5.295
H 5.748 18.648 3.893
H 5.761 17.742 5.419
C 7.223 16.273 3.563
O 6.351 15.546 4.034
N 7.821 15.965 2.409
H 8.593 16.541 2.078
C 7.553 14.733 1.653
H 6.491 14.510 1.761
C 7.799 14.982 0.147
H 7.144 14.308 -0.407
H 7.472 15.995 -0.094
C 9.220 14.784 -0.419
H 9.399 13.709 -0.501
H 9.247 15.190 -1.432
C 10.359 15.406 0.397
O 10.182 16.467 1.032
O 11.442 14.780 0.457
C 8.310 13.510 2.216
O 9.155 13.630 3.101
