27
Fragment 4
N 8.039 12.314 1.703
H 7.351 12.213 0.977
H 8.557 11.509 2.031
C 7.598 17.591 4.288
H 8.165 18.220 3.756
H 8.157 17.298 5.179
C 6.358 18.368 4.753
H 6.659 19.265 5.295
H 5.748 18.648 3.893
H 5.761 17.742 5.419
C 7.223 16.273 3.563
O 6.351 15.546 4.034
N 7.821 15.965 2.409
H 8.593 16.541 2.078
C 7.553 14.733 1.653
H 6.491 14.510 1.761
C 7.799 14.982 0.147
H 7.144 14.308 -0.407
H 7.472 15.995 -0.094
C 9.220 14.784 -0.419
H 9.399 13.709 -0.501
H 9.247 15.190 -1.432
C 10.359 15.406 0.397
O 10.182 16.467 1.032
O 11.442 14.780 0.457
C 8.310 13.510 2.216
O 9.155 13.630 3.101
