46
Fragment 3
C 14.044 17.461 1.159
H 14.129 17.132 0.219
O 13.500 16.790 2.034
N 14.522 18.675 1.426
H 14.945 19.184 0.664
C 14.351 19.416 2.685
H 14.537 18.727 3.509
C 15.438 20.508 2.744
H 15.249 21.181 3.580
H 16.390 20.019 2.952
C 15.592 21.319 1.467
C 16.600 20.985 0.540
H 17.285 20.176 0.750
C 16.720 21.700 -0.665
H 17.494 21.442 -1.374
C 15.836 22.756 -0.945
H 15.929 23.309 -1.869
C 14.835 23.097 -0.019
H 14.158 23.911 -0.233
C 14.710 22.378 1.183
H 13.931 22.638 1.887
C 12.912 19.951 2.914
O 12.725 20.984 3.554
N 11.887 19.259 2.402
H 12.092 18.376 1.953
C 10.468 19.570 2.612
H 10.380 20.474 3.214
C 9.798 19.848 1.250
H 9.798 18.926 0.672
H 8.757 20.123 1.418
C 10.410 20.950 0.398
C 10.509 20.773 -0.995
H 10.184 19.845 -1.446
C 11.026 21.797 -1.808
H 11.103 21.654 -2.876
C 11.440 23.010 -1.231
H 11.836 23.798 -1.855
C 11.336 23.196 0.158
H 11.650 24.129 0.605
C 10.822 22.170 0.971
H 10.748 22.330 2.037
C 9.763 18.459 3.421
O 10.409 17.588 4.004
N 8.430 18.514 3.508
H 7.863 17.885 4.040
H 7.956 19.245 3.005
