54
Fragment 2
O -2.946 2.679 1.853
O -3.203 -0.147 -2.217
N -1.046 2.941 0.666
N -3.200 1.920 -1.373
N -3.634 -0.051 1.142
H -3.032 -0.763 1.504
C -0.189 3.328 -0.442
H 0.691 2.874 -0.299
C 0.106 4.897 -0.572
C -0.185 5.392 -2.003
C -0.624 5.747 0.480
C -2.397 2.921 0.776
C -3.240 3.133 -0.517
C -4.650 3.660 -0.192
C -4.713 5.165 0.176
C -6.066 5.480 0.847
C -4.491 6.082 -1.043
C -3.552 0.587 -1.292
C -4.363 -0.052 -0.124
C -5.821 0.423 0.066
C -6.659 0.534 -1.229
C -8.054 1.102 -0.899
C -6.771 -0.810 -1.979
H -0.546 2.678 1.503
H -2.685 2.046 -2.229
H -3.567 0.828 1.640
H -0.621 2.963 -1.373
H 1.172 5.036 -0.395
H 0.376 4.838 -2.757
H 0.094 6.439 -2.115
H -1.241 5.310 -2.263
H -0.311 6.787 0.387
H -0.391 5.428 1.493
H -1.706 5.727 0.369
H -2.744 3.877 -1.132
H -5.041 3.096 0.648
H -5.297 3.470 -1.049
H -3.932 5.367 0.915
H -6.902 5.257 0.179
H -6.206 4.896 1.756
H -6.140 6.533 1.118
H -5.276 5.941 -1.788
H -4.504 7.132 -0.752
H -3.538 5.908 -1.542
H -4.428 -1.076 -0.462
H -6.289 -0.299 0.741
H -5.843 1.369 0.599
H -6.164 1.247 -1.897
H -8.608 0.436 -0.235
H -7.989 2.073 -0.405
H -8.653 1.233 -1.800
H -7.198 -1.585 -1.340
H -5.807 -1.162 -2.340
H -7.421 -0.716 -2.849
