42
Fragment 4
H -2.181 -5.678 -0.198
H -0.565 -6.038 -0.807
H -2.944 -2.987 -2.744
H -3.643 -3.935 -1.457
O -2.116 -0.832 2.630
O 0.461 -3.893 0.829
H -4.600 -4.534 -3.686
H -3.810 -5.929 -2.976
H -3.011 -5.026 -4.255
O 1.415 -5.060 -1.982
N -1.616 -3.128 1.228
N 0.516 -2.951 -1.738
C -2.809 -1.026 1.638
H -3.411 -0.314 1.276
C -2.856 -2.419 0.957
C -4.127 -3.217 1.392
C -4.562 -3.183 2.878
C -3.511 -3.751 3.853
C -5.902 -3.937 3.025
C -0.594 -3.457 0.379
C -0.796 -3.256 -1.158
C -1.558 -4.432 -1.892
C -1.570 -5.752 -1.098
C -2.984 -3.996 -2.327
C -3.635 -4.927 -3.365
C 1.538 -3.849 -1.876
H 2.432 -3.402 -1.895
H -1.340 -3.171 2.194
H 0.824 -2.006 -1.550
H -2.919 -2.296 -0.114
H -3.972 -4.252 1.081
H -4.965 -2.851 0.793
H -4.743 -2.139 3.154
H -3.177 -4.745 3.550
H -3.926 -3.841 4.857
H -2.642 -3.103 3.934
H -6.275 -3.881 4.047
H -6.674 -3.527 2.372
H -5.793 -4.994 2.776
H -1.363 -2.342 -1.321
H -0.991 -4.604 -2.806
H -1.977 -6.562 -1.700
