35
Fragment 2
C -0.357 5.149 2.560
H -0.850 5.593 1.812
H -0.583 5.665 3.495
C -0.786 3.672 2.705
H -0.581 3.136 1.777
H -0.156 3.223 3.474
C -2.250 3.440 3.142
H -2.334 2.406 3.477
H -2.478 4.087 3.989
C -3.325 3.643 2.069
O -4.477 3.973 2.310
O -2.931 3.476 0.788
H -3.668 3.792 0.237
C 1.161 5.247 2.336
O 1.619 5.405 1.205
N 1.945 5.140 3.412
H 1.520 4.991 4.317
C 3.411 5.160 3.380
H 3.743 4.654 2.472
C 3.896 6.623 3.333
H 3.442 7.118 2.473
H 3.555 7.140 4.231
C 5.419 6.782 3.231
H 5.642 7.839 3.083
H 5.864 6.490 4.183
S 6.235 5.836 1.911
C 5.422 6.520 0.440
H 5.551 7.602 0.418
H 5.870 6.087 -0.455
H 4.359 6.278 0.455
C 3.984 4.392 4.581
O 3.345 4.298 5.623
N 5.179 3.829 4.464
H 5.548 3.323 5.252
H 5.705 3.932 3.609
