26
Fragment 2
H -2.400 5.603 1.690
C -1.634 6.178 1.173
H -1.885 7.237 1.209
H -1.558 5.846 0.139
C -0.310 5.968 1.866
O -0.257 5.328 2.909
N 0.756 6.517 1.287
H 0.603 7.031 0.425
C 2.135 6.458 1.813
H 2.090 6.261 2.885
C 2.914 5.301 1.155
H 2.975 5.471 0.079
H 3.928 5.282 1.557
C 2.285 3.926 1.410
H 2.173 3.789 2.486
H 1.296 3.894 0.955
S 3.252 2.542 0.751
C 2.212 1.166 1.305
H 1.217 1.260 0.871
H 2.658 0.223 0.986
H 2.137 1.179 2.393
C 2.876 7.802 1.656
O 4.101 7.864 1.684
N 2.123 8.881 1.433
H 2.453 9.735 1.031
H 1.125 8.726 1.408
